# NOMAD ENTRY ID: MlqVNx8oraThklz4gD2HrVrF_CBm
data_Zn2C43N6H29O8
_cell_length_a       13.591
_cell_length_b       29.082
_cell_length_c       19.884
_cell_angle_alpha    90
_cell_angle_beta     96.667
_cell_angle_gamma    90

_symmetry_space_group_name_H-M    "P 1"
_symmetry_int_tables_number       1

loop_
  _symmetry_equiv_pos_as_xyz
  'x, y, z'

loop_
  _atom_site_label
  _atom_site_occupancy
  _atom_site_fract_x
  _atom_site_fract_y
  _atom_site_fract_z
  _atom_site_thermal_displace_type
  _atom_site_B_iso_or_equiv
  _atom_site_type_symbol
  Zn1      1.0000 0.48138  0.95622  0.83167  Biso   1.000  Zn
  N1       1.0000 0.32377  0.96558  0.81909  Biso   1.000  N
  C1       1.0000 0.26493  0.93026  0.79796  Biso   1.000  C
  H1       1.0000 0.30140  0.89966  0.78184  Biso   1.000  H
  C2       1.0000 0.16351  0.93149  0.79664  Biso   1.000  C
  H2       1.0000 0.12066  0.90148  0.77925  Biso   1.000  H
  C3       1.0000 0.11704  0.97108  0.81864  Biso   1.000  C
  C4       1.0000 0.01263  0.97471  0.82318  Biso   1.000  C
  H3       1.0000 0.98913  0.00711  0.84336  Biso   1.000  H
  C5       1.0000 0.94463  0.94095  0.80718  Biso   1.000  C
  C6       1.0000 0.84206  0.94353  0.81788  Biso   1.000  C
  C7       1.0000 0.80095  0.97998  0.85180  Biso   1.000  C
  H4       1.0000 0.84588  0.00885  0.87129  Biso   1.000  H
  C8       1.0000 0.70226  0.97918  0.86114  Biso   1.000  C
  H5       1.0000 0.67106  0.00695  0.88832  Biso   1.000  H
  N2       1.0000 0.64057  0.94521  0.83874  Biso   1.000  N
  C9       1.0000 0.67858  0.90984  0.80725  Biso   1.000  C
  H6       1.0000 0.62793  0.88221  0.79042  Biso   1.000  H
  C10      1.0000 0.77663  0.90756  0.79629  Biso   1.000  C
  H7       1.0000 0.80319  0.87801  0.77045  Biso   1.000  H
  H8       1.0000 0.96727  0.90891  0.78545  Biso   1.000  H
  C11      1.0000 0.18014  0.00804  0.83945  Biso   1.000  C
  C12      1.0000 0.28097  0.00385  0.83906  Biso   1.000  C
  H9       1.0000 0.32993  0.03218  0.85548  Biso   1.000  H
  H10      1.0000 0.14957  0.03979  0.85667  Biso   1.000  H
  O1       1.0000 0.46724  0.92402  0.74225  Biso   1.000  O
  C13      1.0000 0.49763  0.93771  0.68886  Biso   1.000  C
  C14      1.0000 0.46968  0.90728  0.62738  Biso   1.000  C
  C15      1.0000 0.47158  0.92323  0.56161  Biso   1.000  C
  H11      1.0000 0.49455  0.95817  0.55235  Biso   1.000  H
  C16      1.0000 0.44293  0.89433  0.50701  Biso   1.000  C
  C17      1.0000 0.41497  0.84916  0.51761  Biso   1.000  C
  H12      1.0000 0.39318  0.82711  0.47448  Biso   1.000  H
  C18      1.0000 0.41383  0.83352  0.58367  Biso   1.000  C
  N3       1.0000 0.38843  0.78749  0.59693  Biso   1.000  N
  C19      1.0000 0.41562  0.75000  0.56333  Biso   1.000  C
  H13      1.0000 0.45583  0.75000  0.51991  Biso   1.000  H
  N4       1.0000 0.38843  0.71251  0.59693  Biso   1.000  N
  C20      1.0000 0.34262  0.72671  0.65147  Biso   1.000  C
  H14      1.0000 0.31289  0.70269  0.68494  Biso   1.000  H
  C21      1.0000 0.34262  0.77329  0.65147  Biso   1.000  C
  H15      1.0000 0.31289  0.79731  0.68494  Biso   1.000  H
  C22      1.0000 0.41383  0.66648  0.58367  Biso   1.000  C
  C23      1.0000 0.41497  0.65084  0.51761  Biso   1.000  C
  H16      1.0000 0.39318  0.67289  0.47448  Biso   1.000  H
  C24      1.0000 0.44293  0.60567  0.50701  Biso   1.000  C
  C25      1.0000 0.47158  0.57677  0.56161  Biso   1.000  C
  H17      1.0000 0.49455  0.54183  0.55235  Biso   1.000  H
  C26      1.0000 0.46968  0.59272  0.62738  Biso   1.000  C
  C27      1.0000 0.44004  0.63752  0.63851  Biso   1.000  C
  H18      1.0000 0.43962  0.64973  0.68995  Biso   1.000  H
  C28      1.0000 0.49763  0.56229  0.68886  Biso   1.000  C
  O2       1.0000 0.46724  0.57598  0.74225  Biso   1.000  O
  Zn2      1.0000 0.48138  0.54378  0.83167  Biso   1.000  Zn
  O3       1.0000 0.49760  0.47516  0.82022  Biso   1.000  O
  C29      1.0000 0.54613  0.43945  0.81465  Biso   1.000  C
  O4       1.0000 0.58165  0.42594  0.76305  Biso   1.000  O
  Zn3      1.0000 0.56115  0.45727  0.67147  Biso   1.000  Zn
  N5       1.0000 0.40339  0.44644  0.67007  Biso   1.000  N
  C30      1.0000 0.34103  0.47986  0.64650  Biso   1.000  C
  H19      1.0000 0.37202  0.50775  0.61955  Biso   1.000  H
  C31      1.0000 0.24185  0.47992  0.65435  Biso   1.000  C
  H20      1.0000 0.19638  0.50835  0.63386  Biso   1.000  H
  C32      1.0000 0.20087  0.44325  0.68788  Biso   1.000  C
  C33      1.0000 0.09776  0.44013  0.69692  Biso   1.000  C
  C34      1.0000 0.03012  0.47409  0.68108  Biso   1.000  C
  H21      1.0000 0.05456  0.50687  0.66274  Biso   1.000  H
  C35      1.0000 0.92528  0.47038  0.68355  Biso   1.000  C
  C36      1.0000 0.86323  0.50796  0.66402  Biso   1.000  C
  H22      1.0000 0.89492  0.54017  0.64951  Biso   1.000  H
  C37      1.0000 0.76207  0.50385  0.66234  Biso   1.000  C
  H23      1.0000 0.71393  0.53266  0.64694  Biso   1.000  H
  N6       1.0000 0.71801  0.46501  0.67889  Biso   1.000  N
  C38      1.0000 0.77575  0.42906  0.69873  Biso   1.000  C
  H24      1.0000 0.73819  0.39802  0.71211  Biso   1.000  H
  C39      1.0000 0.87739  0.43020  0.70202  Biso   1.000  C
  H25      1.0000 0.91937  0.39968  0.71816  Biso   1.000  H
  H26      1.0000 0.07455  0.40775  0.71731  Biso   1.000  H
  C40      1.0000 0.26704  0.40781  0.71061  Biso   1.000  C
  C41      1.0000 0.36559  0.41083  0.70114  Biso   1.000  C
  H27      1.0000 0.41681  0.38362  0.71886  Biso   1.000  H
  H28      1.0000 0.24066  0.37809  0.73618  Biso   1.000  H
  O5       1.0000 0.54741  0.45493  0.57077  Biso   1.000  O
  C42      1.0000 0.56041  0.41250  0.56487  Biso   1.000  C
  C43      1.0000 0.55707  0.39433  0.49299  Biso   1.000  C
  C44      1.0000 0.52842  0.42323  0.43839  Biso   1.000  C
  H29      1.0000 0.50545  0.45817  0.44765  Biso   1.000  H
  C45      1.0000 0.53032  0.40728  0.37262  Biso   1.000  C
  C46      1.0000 0.50237  0.43771  0.31114  Biso   1.000  C
  O6       1.0000 0.53276  0.42402  0.25775  Biso   1.000  O
  Zn4      1.0000 0.51862  0.45622  0.16833  Biso   1.000  Zn
  N7       1.0000 0.35943  0.44521  0.16126  Biso   1.000  N
  C47      1.0000 0.29774  0.47918  0.13886  Biso   1.000  C
  C48      1.0000 0.19905  0.47998  0.14820  Biso   1.000  C
  H30      1.0000 0.15412  0.50885  0.12871  Biso   1.000  H
  C49      1.0000 0.15794  0.44353  0.18212  Biso   1.000  C
  C50      1.0000 0.22337  0.40756  0.20371  Biso   1.000  C
  H31      1.0000 0.19681  0.37801  0.22955  Biso   1.000  H
  C51      1.0000 0.32142  0.40984  0.19275  Biso   1.000  C
  H32      1.0000 0.37207  0.38221  0.20958  Biso   1.000  H
  C52      1.0000 0.05537  0.44095  0.19282  Biso   1.000  C
  H33      1.0000 0.03273  0.40891  0.21455  Biso   1.000  H
  C53      1.0000 0.98737  0.47471  0.17682  Biso   1.000  C
  H34      1.0000 0.01087  0.50711  0.15664  Biso   1.000  H
  C54      1.0000 0.88296  0.47108  0.18136  Biso   1.000  C
  C55      1.0000 0.83649  0.43149  0.20336  Biso   1.000  C
  H35      1.0000 0.87934  0.40148  0.22075  Biso   1.000  H
  C56      1.0000 0.73507  0.43026  0.20204  Biso   1.000  C
  H36      1.0000 0.69860  0.39966  0.21816  Biso   1.000  H
  N8       1.0000 0.67623  0.46558  0.18091  Biso   1.000  N
  C57      1.0000 0.71903  0.50385  0.16094  Biso   1.000  C
  H37      1.0000 0.67007  0.53218  0.14452  Biso   1.000  H
  C58      1.0000 0.81986  0.50804  0.16055  Biso   1.000  C
  H38      1.0000 0.85043  0.53979  0.14333  Biso   1.000  H
  H39      1.0000 0.32894  0.50695  0.11168  Biso   1.000  H
  O7       1.0000 0.51853  0.45037  0.06985  Biso   1.000  O
  C59      1.0000 0.54227  0.40883  0.06506  Biso   1.000  C
  C60      1.0000 0.55945  0.39261  0.99466  Biso   1.000  C
  C61      1.0000 0.59082  0.34777  0.98570  Biso   1.000  C
  C62      1.0000 0.60865  0.33343  0.92141  Biso   1.000  C
  C63      1.0000 0.59562  0.36343  0.86657  Biso   1.000  C
  H40      1.0000 0.60812  0.35222  0.81631  Biso   1.000  H
  C64      1.0000 0.56304  0.40799  0.87594  Biso   1.000  C
  C65      1.0000 0.54476  0.42263  0.93991  Biso   1.000  C
  H41      1.0000 0.51922  0.45739  0.94757  Biso   1.000  H
  N9       1.0000 0.63654  0.28751  0.91002  Biso   1.000  N
  C66      1.0000 0.60224  0.25000  0.94010  Biso   1.000  C
  H42      1.0000 0.55242  0.25000  0.97825  Biso   1.000  H
  N10      1.0000 0.63654  0.21249  0.91002  Biso   1.000  N
  C67      1.0000 0.60865  0.16657  0.92141  Biso   1.000  C
  C68      1.0000 0.59082  0.15223  0.98570  Biso   1.000  C
  C69      1.0000 0.55945  0.10739  0.99466  Biso   1.000  C
  C70      1.0000 0.54476  0.07737  0.93991  Biso   1.000  C
  H43      1.0000 0.51922  0.04261  0.94757  Biso   1.000  H
  C71      1.0000 0.56304  0.09201  0.87594  Biso   1.000  C
  C72      1.0000 0.54613  0.06055  0.81465  Biso   1.000  C
  O8       1.0000 0.58165  0.07406  0.76305  Biso   1.000  O
  Zn5      1.0000 0.56115  0.04273  0.67147  Biso   1.000  Zn
  N11      1.0000 0.40339  0.05356  0.67007  Biso   1.000  N
  C73      1.0000 0.34103  0.02014  0.64650  Biso   1.000  C
  H44      1.0000 0.37202  0.99225  0.61955  Biso   1.000  H
  C74      1.0000 0.24185  0.02008  0.65435  Biso   1.000  C
  H45      1.0000 0.19638  0.99165  0.63386  Biso   1.000  H
  C75      1.0000 0.20087  0.05675  0.68788  Biso   1.000  C
  C76      1.0000 0.09776  0.05987  0.69692  Biso   1.000  C
  H46      1.0000 0.07455  0.09225  0.71731  Biso   1.000  H
  C77      1.0000 0.03012  0.02591  0.68108  Biso   1.000  C
  H47      1.0000 0.05456  0.99313  0.66274  Biso   1.000  H
  C78      1.0000 0.92528  0.02962  0.68355  Biso   1.000  C
  C79      1.0000 0.86323  0.99204  0.66402  Biso   1.000  C
  H48      1.0000 0.89492  0.95983  0.64951  Biso   1.000  H
  C80      1.0000 0.76207  0.99615  0.66234  Biso   1.000  C
  H49      1.0000 0.71393  0.96734  0.64694  Biso   1.000  H
  N12      1.0000 0.71801  0.03499  0.67889  Biso   1.000  N
  C81      1.0000 0.77575  0.07094  0.69873  Biso   1.000  C
  H50      1.0000 0.73819  0.10198  0.71211  Biso   1.000  H
  C82      1.0000 0.87739  0.06980  0.70202  Biso   1.000  C
  H51      1.0000 0.91937  0.10032  0.71816  Biso   1.000  H
  C83      1.0000 0.26704  0.09219  0.71061  Biso   1.000  C
  H52      1.0000 0.24066  0.12191  0.73618  Biso   1.000  H
  C84      1.0000 0.36559  0.08917  0.70114  Biso   1.000  C
  H53      1.0000 0.41681  0.11638  0.71886  Biso   1.000  H
  O9       1.0000 0.54741  0.04507  0.57077  Biso   1.000  O
  C85      1.0000 0.56041  0.08750  0.56487  Biso   1.000  C
  C86      1.0000 0.55707  0.10567  0.49299  Biso   1.000  C
  C87      1.0000 0.58503  0.15084  0.48239  Biso   1.000  C
  H54      1.0000 0.60682  0.17289  0.52552  Biso   1.000  H
  C88      1.0000 0.58617  0.16648  0.41633  Biso   1.000  C
  C89      1.0000 0.55996  0.13752  0.36149  Biso   1.000  C
  H55      1.0000 0.56038  0.14973  0.31005  Biso   1.000  H
  C90      1.0000 0.53032  0.09272  0.37262  Biso   1.000  C
  C91      1.0000 0.50237  0.06229  0.31114  Biso   1.000  C
  O10      1.0000 0.53276  0.07598  0.25775  Biso   1.000  O
  Zn6      1.0000 0.51862  0.04378  0.16833  Biso   1.000  Zn
  N13      1.0000 0.35943  0.05479  0.16126  Biso   1.000  N
  C92      1.0000 0.29774  0.02082  0.13886  Biso   1.000  C
  C93      1.0000 0.19905  0.02002  0.14820  Biso   1.000  C
  H56      1.0000 0.15412  0.99115  0.12871  Biso   1.000  H
  C94      1.0000 0.15794  0.05647  0.18212  Biso   1.000  C
  C95      1.0000 0.22337  0.09244  0.20371  Biso   1.000  C
  H57      1.0000 0.19681  0.12199  0.22955  Biso   1.000  H
  C96      1.0000 0.32142  0.09016  0.19275  Biso   1.000  C
  H58      1.0000 0.37207  0.11779  0.20958  Biso   1.000  H
  C97      1.0000 0.05537  0.05905  0.19282  Biso   1.000  C
  H59      1.0000 0.03273  0.09109  0.21455  Biso   1.000  H
  C98      1.0000 0.98737  0.02529  0.17682  Biso   1.000  C
  H60      1.0000 0.01087  0.99289  0.15664  Biso   1.000  H
  C99      1.0000 0.88296  0.02892  0.18136  Biso   1.000  C
  C100     1.0000 0.83649  0.06851  0.20336  Biso   1.000  C
  H61      1.0000 0.87934  0.09852  0.22075  Biso   1.000  H
  C101     1.0000 0.73507  0.06974  0.20204  Biso   1.000  C
  H62      1.0000 0.69860  0.10034  0.21816  Biso   1.000  H
  N14      1.0000 0.67623  0.03442  0.18091  Biso   1.000  N
  C102     1.0000 0.71903  0.99615  0.16094  Biso   1.000  C
  H63      1.0000 0.67007  0.96782  0.14452  Biso   1.000  H
  C103     1.0000 0.81986  0.99196  0.16055  Biso   1.000  C
  H64      1.0000 0.85043  0.96021  0.14333  Biso   1.000  H
  H65      1.0000 0.32894  0.99305  0.11168  Biso   1.000  H
  O11      1.0000 0.51853  0.04963  0.06985  Biso   1.000  O
  C104     1.0000 0.54227  0.09117  0.06506  Biso   1.000  C
  O12      1.0000 0.55340  0.11881  0.11237  Biso   1.000  O
  O13      1.0000 0.50240  0.97516  0.17978  Biso   1.000  O
  C105     1.0000 0.45387  0.93945  0.18535  Biso   1.000  C
  O14      1.0000 0.41835  0.92594  0.23695  Biso   1.000  O
  Zn7      1.0000 0.43885  0.95727  0.32853  Biso   1.000  Zn
  N15      1.0000 0.28199  0.96501  0.32111  Biso   1.000  N
  C106     1.0000 0.22425  0.92906  0.30127  Biso   1.000  C
  H66      1.0000 0.26181  0.89802  0.28789  Biso   1.000  H
  C107     1.0000 0.12261  0.93020  0.29798  Biso   1.000  C
  H67      1.0000 0.08063  0.89968  0.28184  Biso   1.000  H
  C108     1.0000 0.07472  0.97038  0.31645  Biso   1.000  C
  C109     1.0000 0.96988  0.97409  0.31892  Biso   1.000  C
  C110     1.0000 0.90224  0.94013  0.30308  Biso   1.000  C
  H68      1.0000 0.92545  0.90775  0.28269  Biso   1.000  H
  C111     1.0000 0.79913  0.94325  0.31212  Biso   1.000  C
  C112     1.0000 0.73296  0.90781  0.28939  Biso   1.000  C
  H69      1.0000 0.75934  0.87809  0.26382  Biso   1.000  H
  C113     1.0000 0.63441  0.91083  0.29886  Biso   1.000  C
  H70      1.0000 0.58319  0.88362  0.28114  Biso   1.000  H
  N16      1.0000 0.59661  0.94644  0.32993  Biso   1.000  N
  C114     1.0000 0.65897  0.97986  0.35350  Biso   1.000  C
  C115     1.0000 0.75815  0.97992  0.34565  Biso   1.000  C
  H71      1.0000 0.80362  0.00835  0.36614  Biso   1.000  H
  H72      1.0000 0.62798  0.00775  0.38045  Biso   1.000  H
  H73      1.0000 0.94544  0.00687  0.33726  Biso   1.000  H
  C116     1.0000 0.13677  0.00796  0.33598  Biso   1.000  C
  H74      1.0000 0.10508  0.04017  0.35049  Biso   1.000  H
  C117     1.0000 0.23793  0.00385  0.33766  Biso   1.000  C
  H75      1.0000 0.28607  0.03266  0.35306  Biso   1.000  H
  C118     1.0000 0.43959  0.91250  0.43513  Biso   1.000  C
  O15      1.0000 0.42344  0.88524  0.38743  Biso   1.000  O
  O16      1.0000 0.45259  0.95493  0.42923  Biso   1.000  O
  O17      1.0000 0.45220  0.02737  0.31827  Biso   1.000  O
  C119     1.0000 0.43696  0.90799  0.12406  Biso   1.000  C
  C120     1.0000 0.40438  0.86343  0.13343  Biso   1.000  C
  H76      1.0000 0.39188  0.85222  0.18369  Biso   1.000  H
  C121     1.0000 0.39135  0.83343  0.07859  Biso   1.000  C
  C122     1.0000 0.40918  0.84777  0.01430  Biso   1.000  C
  H77      1.0000 0.39817  0.82484  0.97108  Biso   1.000  H
  C123     1.0000 0.44055  0.89261  0.00534  Biso   1.000  C
  C124     1.0000 0.45773  0.90883  0.93494  Biso   1.000  C
  O18      1.0000 0.48147  0.95037  0.93015  Biso   1.000  O
  O19      1.0000 0.44660  0.88119  0.88763  Biso   1.000  O
  C125     1.0000 0.45524  0.92263  0.06009  Biso   1.000  C
  H78      1.0000 0.48078  0.95739  0.05243  Biso   1.000  H
  N17      1.0000 0.36346  0.78751  0.08998  Biso   1.000  N
  C126     1.0000 0.39776  0.75000  0.05990  Biso   1.000  C
  H79      1.0000 0.44758  0.75000  0.02175  Biso   1.000  H
  N18      1.0000 0.36346  0.71249  0.08998  Biso   1.000  N
  C127     1.0000 0.30615  0.72671  0.13870  Biso   1.000  C
  H80      1.0000 0.26932  0.70271  0.16845  Biso   1.000  H
  C128     1.0000 0.30615  0.77329  0.13870  Biso   1.000  C
  H81      1.0000 0.26932  0.79729  0.16845  Biso   1.000  H
  C129     1.0000 0.39135  0.66657  0.07859  Biso   1.000  C
  C130     1.0000 0.40438  0.63657  0.13343  Biso   1.000  C
  H82      1.0000 0.39188  0.64778  0.18369  Biso   1.000  H
  C131     1.0000 0.43696  0.59201  0.12406  Biso   1.000  C
  C132     1.0000 0.45524  0.57737  0.06009  Biso   1.000  C
  C133     1.0000 0.44055  0.60739  0.00534  Biso   1.000  C
  C134     1.0000 0.40918  0.65223  0.01430  Biso   1.000  C
  H83      1.0000 0.39817  0.67516  0.97108  Biso   1.000  H
  C135     1.0000 0.45773  0.59117  0.93494  Biso   1.000  C
  O20      1.0000 0.48147  0.54963  0.93015  Biso   1.000  O
  O21      1.0000 0.44660  0.61881  0.88763  Biso   1.000  O
  H84      1.0000 0.48078  0.54261  0.05243  Biso   1.000  H
  C136     1.0000 0.45387  0.56055  0.18535  Biso   1.000  C
  O22      1.0000 0.41835  0.57406  0.23695  Biso   1.000  O
  Zn8      1.0000 0.43885  0.54273  0.32853  Biso   1.000  Zn
  O23      1.0000 0.45220  0.47263  0.31827  Biso   1.000  O
  N19      1.0000 0.28199  0.53499  0.32111  Biso   1.000  N
  C137     1.0000 0.23793  0.49615  0.33766  Biso   1.000  C
  C138     1.0000 0.13677  0.49204  0.33598  Biso   1.000  C
  H85      1.0000 0.10508  0.45983  0.35049  Biso   1.000  H
  C139     1.0000 0.07472  0.52962  0.31645  Biso   1.000  C
  C140     1.0000 0.96988  0.52591  0.31892  Biso   1.000  C
  H86      1.0000 0.94544  0.49313  0.33726  Biso   1.000  H
  C141     1.0000 0.90224  0.55987  0.30308  Biso   1.000  C
  H87      1.0000 0.92545  0.59225  0.28269  Biso   1.000  H
  C142     1.0000 0.79913  0.55675  0.31212  Biso   1.000  C
  C143     1.0000 0.73296  0.59219  0.28939  Biso   1.000  C
  C144     1.0000 0.63441  0.58917  0.29886  Biso   1.000  C
  H88      1.0000 0.58319  0.61638  0.28114  Biso   1.000  H
  N20      1.0000 0.59661  0.55356  0.32993  Biso   1.000  N
  C145     1.0000 0.65897  0.52014  0.35350  Biso   1.000  C
  H89      1.0000 0.62798  0.49225  0.38045  Biso   1.000  H
  C146     1.0000 0.75815  0.52008  0.34565  Biso   1.000  C
  H90      1.0000 0.80362  0.49165  0.36614  Biso   1.000  H
  H91      1.0000 0.75934  0.62191  0.26382  Biso   1.000  H
  C147     1.0000 0.12261  0.56980  0.29798  Biso   1.000  C
  H92      1.0000 0.08063  0.60032  0.28184  Biso   1.000  H
  C148     1.0000 0.22425  0.57094  0.30127  Biso   1.000  C
  H93      1.0000 0.26181  0.60198  0.28789  Biso   1.000  H
  H94      1.0000 0.28607  0.46734  0.35306  Biso   1.000  H
  C149     1.0000 0.43959  0.58750  0.43513  Biso   1.000  C
  O24      1.0000 0.42344  0.61476  0.38743  Biso   1.000  O
  O25      1.0000 0.45259  0.54507  0.42923  Biso   1.000  O
  O26      1.0000 0.50240  0.52484  0.17978  Biso   1.000  O
  C150     1.0000 0.52842  0.07677  0.43839  Biso   1.000  C
  H95      1.0000 0.50545  0.04183  0.44765  Biso   1.000  H
  N21      1.0000 0.61157  0.21251  0.40307  Biso   1.000  N
  C151     1.0000 0.65738  0.22671  0.34853  Biso   1.000  C
  H96      1.0000 0.68711  0.20269  0.31506  Biso   1.000  H
  C152     1.0000 0.65738  0.27329  0.34853  Biso   1.000  C
  H97      1.0000 0.68711  0.29731  0.31506  Biso   1.000  H
  N22      1.0000 0.61157  0.28749  0.40307  Biso   1.000  N
  C153     1.0000 0.58438  0.25000  0.43667  Biso   1.000  C
  H98      1.0000 0.54417  0.25000  0.48009  Biso   1.000  H
  C154     1.0000 0.58617  0.33352  0.41633  Biso   1.000  C
  C155     1.0000 0.55996  0.36248  0.36149  Biso   1.000  C
  H99      1.0000 0.56038  0.35027  0.31005  Biso   1.000  H
  C156     1.0000 0.58503  0.34916  0.48239  Biso   1.000  C
  H100     1.0000 0.60682  0.32711  0.52552  Biso   1.000  H
  O27      1.0000 0.57656  0.11476  0.61257  Biso   1.000  O
  O28      1.0000 0.54780  0.97263  0.68173  Biso   1.000  O
  O29      1.0000 0.49760  0.02484  0.82022  Biso   1.000  O
  C157     1.0000 0.59562  0.13657  0.86657  Biso   1.000  C
  H101     1.0000 0.60812  0.14778  0.81631  Biso   1.000  H
  H102     1.0000 0.60183  0.17516  0.02892  Biso   1.000  H
  C158     1.0000 0.69385  0.22671  0.86130  Biso   1.000  C
  H103     1.0000 0.73068  0.20271  0.83155  Biso   1.000  H
  C159     1.0000 0.69385  0.27329  0.86130  Biso   1.000  C
  H104     1.0000 0.73068  0.29729  0.83155  Biso   1.000  H
  H105     1.0000 0.60183  0.32484  0.02892  Biso   1.000  H
  O30      1.0000 0.55340  0.38119  0.11237  Biso   1.000  O
  O31      1.0000 0.57656  0.38524  0.61257  Biso   1.000  O
  O32      1.0000 0.54780  0.52737  0.68173  Biso   1.000  O
  N23      1.0000 0.32377  0.53442  0.81909  Biso   1.000  N
  C160     1.0000 0.26493  0.56974  0.79796  Biso   1.000  C
  H106     1.0000 0.30140  0.60034  0.78184  Biso   1.000  H
  C161     1.0000 0.16351  0.56851  0.79664  Biso   1.000  C
  H107     1.0000 0.12066  0.59852  0.77925  Biso   1.000  H
  C162     1.0000 0.11704  0.52892  0.81864  Biso   1.000  C
  C163     1.0000 0.01263  0.52529  0.82318  Biso   1.000  C
  H108     1.0000 0.98913  0.49289  0.84336  Biso   1.000  H
  C164     1.0000 0.94463  0.55905  0.80718  Biso   1.000  C
  C165     1.0000 0.84206  0.55647  0.81788  Biso   1.000  C
  C166     1.0000 0.80095  0.52002  0.85180  Biso   1.000  C
  H109     1.0000 0.84588  0.49115  0.87129  Biso   1.000  H
  C167     1.0000 0.70226  0.52082  0.86114  Biso   1.000  C
  H110     1.0000 0.67106  0.49305  0.88832  Biso   1.000  H
  N24      1.0000 0.64057  0.55479  0.83874  Biso   1.000  N
  C168     1.0000 0.67858  0.59016  0.80725  Biso   1.000  C
  H111     1.0000 0.62793  0.61779  0.79042  Biso   1.000  H
  C169     1.0000 0.77663  0.59244  0.79629  Biso   1.000  C
  H112     1.0000 0.80319  0.62199  0.77045  Biso   1.000  H
  H113     1.0000 0.96727  0.59109  0.78545  Biso   1.000  H
  C170     1.0000 0.18014  0.49196  0.83945  Biso   1.000  C
  H114     1.0000 0.14957  0.46021  0.85667  Biso   1.000  H
  C171     1.0000 0.28097  0.49615  0.83906  Biso   1.000  C
  H115     1.0000 0.32993  0.46782  0.85548  Biso   1.000  H
  C172     1.0000 0.44004  0.86248  0.63851  Biso   1.000  C
  H116     1.0000 0.43962  0.85027  0.68995  Biso   1.000  H
